<?xml version="1.0" encoding="UTF-8"?>

<configuration>
    <input>
        <!-- Network file (.net.xml) -->
        <net-file value="D:/Programming/Hackathons_Projects/Yann/Simulation/Sumo_4way_Intersection/network.net.xml"/>
        
        <!-- Routes file (.rou.xml) -->
        <route-files value="D:/Programming/Hackathons_Projects/Yann/Simulation/Sumo_4way_Intersection/routes.rou.xml"/>
    </input>

    <time>
        <!-- Simulation start and end time -->
        <begin value="0"/>
        <end value="1000"/>
    </time>

    <report>
        <!-- Optional output for simulation -->
        <log value="D:/Programming/Hackathons_Projects/Yann/Simulation/Sumo_4way_Intersection/simulation.log"/>
    </report>
</configuration>
