<?xml version="1.0" encoding="UTF-8"?>

<!-- generated on 2024-09-16 16:36:44 by Eclipse SUMO netedit Version 1.20.0
<configuration xmlns:xsi="http://www.w3.org/2001/XMLSchema-instance" xsi:noNamespaceSchemaLocation="http://sumo.dlr.de/xsd/neteditConfiguration.xsd">

    <input>
        <sumo-net-file value="D:\Programming\Hackathons,Projects\Yann\Simulation\4-Way Intersection.net.xml"/>
    </input>

    <output>
        <output-file value="D:\Programming\Hackathons,Projects\Yann\Simulation\4-Way Intersection.net.xml"/>
    </output>

    <processing>
        <offset.disable-normalization value="true"/>
    </processing>

    <junctions>
        <no-turnarounds value="true"/>
    </junctions>

    <netedit>
        <new-network value="false"/>
    </netedit>

</configuration>
-->

<net version="1.20" junctionCornerDetail="5" limitTurnSpeed="5.50" xmlns:xsi="http://www.w3.org/2001/XMLSchema-instance" xsi:noNamespaceSchemaLocation="http://sumo.dlr.de/xsd/net_file.xsd">

    <location netOffset="0.00,0.00" convBoundary="0.00,0.00,200.00,200.00" origBoundary="10000000000.00,10000000000.00,-10000000000.00,-10000000000.00" projParameter="!"/>

    <edge id=":J12_0" function="internal">
        <lane id=":J12_0_0" index="0" speed="6.51" length="9.03" shape="95.20,110.40 94.85,107.95 93.80,106.20 92.05,105.15 89.60,104.80"/>
        <lane id=":J12_0_1" index="1" speed="7.33" length="11.73" shape="95.20,110.40 94.85,106.55 93.80,103.80 92.05,102.15 89.60,101.60"/>
    </edge>
    <edge id=":J12_2" function="internal">
        <lane id=":J12_2_0" index="0" speed="13.89" length="20.96" shape="98.40,110.40 97.90,104.34 96.80,100.00 95.70,95.66 95.20,89.60"/>
        <lane id=":J12_2_1" index="1" speed="13.89" length="20.96" shape="98.40,110.40 98.40,89.60"/>
    </edge>
    <edge id=":J12_4" function="internal">
        <lane id=":J12_4_0" index="0" speed="9.26" length="5.01" shape="98.40,110.40 99.11,105.44"/>
    </edge>
    <edge id=":J12_20" function="internal">
        <lane id=":J12_20_0" index="0" speed="9.26" length="14.34" shape="99.11,105.44 99.15,105.15 101.40,101.40 105.15,99.15 110.40,98.40"/>
    </edge>
    <edge id=":J12_5" function="internal">
        <lane id=":J12_5_0" index="0" speed="6.51" length="9.03" shape="110.40,104.80 107.95,105.15 106.20,106.20 105.15,107.95 104.80,110.40"/>
        <lane id=":J12_5_1" index="1" speed="7.33" length="11.73" shape="110.40,104.80 106.55,105.15 103.80,106.20 102.15,107.95 101.60,110.40"/>
    </edge>
    <edge id=":J12_7" function="internal">
        <lane id=":J12_7_0" index="0" speed="13.89" length="20.96" shape="110.40,101.60 104.34,102.10 100.00,103.20 95.66,104.30 89.60,104.80"/>
        <lane id=":J12_7_1" index="1" speed="13.89" length="20.96" shape="110.40,101.60 89.60,101.60"/>
    </edge>
    <edge id=":J12_9" function="internal">
        <lane id=":J12_9_0" index="0" speed="9.26" length="5.01" shape="110.40,101.60 105.44,100.89"/>
    </edge>
    <edge id=":J12_21" function="internal">
        <lane id=":J12_21_0" index="0" speed="9.26" length="14.34" shape="105.44,100.89 105.15,100.85 101.40,98.60 99.15,94.85 98.40,89.60"/>
    </edge>
    <edge id=":J12_10" function="internal">
        <lane id=":J12_10_0" index="0" speed="6.51" length="9.03" shape="104.80,89.60 105.15,92.05 106.20,93.80 107.95,94.85 110.40,95.20"/>
        <lane id=":J12_10_1" index="1" speed="7.33" length="11.73" shape="104.80,89.60 105.15,93.45 106.20,96.20 107.95,97.85 110.40,98.40"/>
    </edge>
    <edge id=":J12_12" function="internal">
        <lane id=":J12_12_0" index="0" speed="13.89" length="20.96" shape="101.60,89.60 102.10,95.66 103.20,100.00 104.30,104.34 104.80,110.40"/>
        <lane id=":J12_12_1" index="1" speed="13.89" length="20.96" shape="101.60,89.60 101.60,110.40"/>
    </edge>
    <edge id=":J12_14" function="internal">
        <lane id=":J12_14_0" index="0" speed="9.26" length="5.01" shape="101.60,89.60 100.89,94.56"/>
    </edge>
    <edge id=":J12_22" function="internal">
        <lane id=":J12_22_0" index="0" speed="9.26" length="14.34" shape="100.89,94.56 100.85,94.85 98.60,98.60 94.85,100.85 89.60,101.60"/>
    </edge>
    <edge id=":J12_15" function="internal">
        <lane id=":J12_15_0" index="0" speed="6.51" length="9.03" shape="89.60,95.20 92.05,94.85 93.80,93.80 94.85,92.05 95.20,89.60"/>
        <lane id=":J12_15_1" index="1" speed="7.33" length="11.73" shape="89.60,95.20 93.45,94.85 96.20,93.80 97.85,92.05 98.40,89.60"/>
    </edge>
    <edge id=":J12_17" function="internal">
        <lane id=":J12_17_0" index="0" speed="13.89" length="20.96" shape="89.60,98.40 95.66,97.90 100.00,96.80 104.34,95.70 110.40,95.20"/>
        <lane id=":J12_17_1" index="1" speed="13.89" length="20.96" shape="89.60,98.40 110.40,98.40"/>
    </edge>
    <edge id=":J12_19" function="internal">
        <lane id=":J12_19_0" index="0" speed="9.26" length="5.01" shape="89.60,98.40 94.56,99.11"/>
    </edge>
    <edge id=":J12_23" function="internal">
        <lane id=":J12_23_0" index="0" speed="9.26" length="14.34" shape="94.56,99.11 94.85,99.15 98.60,101.40 100.85,105.15 101.60,110.40"/>
    </edge>

    <edge id="-E6" from="J12" to="J11" priority="-1">
        <lane id="-E6_0" index="0" speed="13.89" length="89.60" shape="89.60,104.80 0.00,104.80"/>
        <lane id="-E6_1" index="1" speed="13.89" length="89.60" shape="89.60,101.60 0.00,101.60"/>
    </edge>
    <edge id="-E7" from="J13" to="J12" priority="-1">
        <lane id="-E7_0" index="0" speed="13.89" length="89.60" shape="95.20,200.00 95.20,110.40"/>
        <lane id="-E7_1" index="1" speed="13.89" length="89.60" shape="98.40,200.00 98.40,110.40"/>
    </edge>
    <edge id="-E8" from="J14" to="J12" priority="-1">
        <lane id="-E8_0" index="0" speed="13.89" length="89.60" shape="200.00,104.80 110.40,104.80"/>
        <lane id="-E8_1" index="1" speed="13.89" length="89.60" shape="200.00,101.60 110.40,101.60"/>
    </edge>
    <edge id="-E9" from="J15" to="J12" priority="-1">
        <lane id="-E9_0" index="0" speed="13.89" length="89.60" shape="104.80,0.00 104.80,89.60"/>
        <lane id="-E9_1" index="1" speed="13.89" length="89.60" shape="101.60,0.00 101.60,89.60"/>
    </edge>
    <edge id="E6" from="J11" to="J12" priority="-1">
        <lane id="E6_0" index="0" speed="13.89" length="89.60" shape="0.00,95.20 89.60,95.20"/>
        <lane id="E6_1" index="1" speed="13.89" length="89.60" shape="0.00,98.40 89.60,98.40"/>
    </edge>
    <edge id="E7" from="J12" to="J13" priority="-1">
        <lane id="E7_0" index="0" speed="13.89" length="89.60" shape="104.80,110.40 104.80,200.00"/>
        <lane id="E7_1" index="1" speed="13.89" length="89.60" shape="101.60,110.40 101.60,200.00"/>
    </edge>
    <edge id="E8" from="J12" to="J14" priority="-1">
        <lane id="E8_0" index="0" speed="13.89" length="89.60" shape="110.40,95.20 200.00,95.20"/>
        <lane id="E8_1" index="1" speed="13.89" length="89.60" shape="110.40,98.40 200.00,98.40"/>
    </edge>
    <edge id="E9" from="J12" to="J15" priority="-1">
        <lane id="E9_0" index="0" speed="13.89" length="89.60" shape="95.20,89.60 95.20,0.00"/>
        <lane id="E9_1" index="1" speed="13.89" length="89.60" shape="98.40,89.60 98.40,0.00"/>
    </edge>

    <tlLogic id="J12" type="static" programID="0" offset="0">
        <phase duration="42" state="GGGGgrrrrrGGGGgrrrrr"/>
        <phase duration="3"  state="yyyyyrrrrryyyyyrrrrr"/>
        <phase duration="42" state="rrrrrGGGGgrrrrrGGGGg"/>
        <phase duration="3"  state="rrrrryyyyyrrrrryyyyy"/>
    </tlLogic>

    <junction id="J11" type="dead_end" x="0.00" y="100.00" incLanes="-E6_0 -E6_1" intLanes="" shape="0.00,100.00 0.00,106.40 0.00,100.00"/>
    <junction id="J12" type="traffic_light" x="100.00" y="100.00" incLanes="-E7_0 -E7_1 -E8_0 -E8_1 -E9_0 -E9_1 E6_0 E6_1" intLanes=":J12_0_0 :J12_0_1 :J12_2_0 :J12_2_1 :J12_20_0 :J12_5_0 :J12_5_1 :J12_7_0 :J12_7_1 :J12_21_0 :J12_10_0 :J12_10_1 :J12_12_0 :J12_12_1 :J12_22_0 :J12_15_0 :J12_15_1 :J12_17_0 :J12_17_1 :J12_23_0" shape="93.60,110.40 106.40,110.40 106.84,108.18 107.40,107.40 108.18,106.84 109.18,106.51 110.40,106.40 110.40,93.60 108.18,93.16 107.40,92.60 106.84,91.82 106.51,90.82 106.40,89.60 93.60,89.60 93.16,91.82 92.60,92.60 91.82,93.16 90.82,93.49 89.60,93.60 89.60,106.40 91.82,106.84 92.60,107.40 93.16,108.18 93.49,109.18">
        <request index="0"  response="00000000000000000000" foes="00000100000110000000" cont="0"/>
        <request index="1"  response="00000000000000000000" foes="00000100000110000000" cont="0"/>
        <request index="2"  response="10000000001000000000" foes="11111100001110000000" cont="0"/>
        <request index="3"  response="10000000001000000000" foes="11111100001110000000" cont="0"/>
        <request index="4"  response="10000011111000000000" foes="11100011111110000000" cont="1"/>
        <request index="5"  response="00000011000000000000" foes="10000011000000000000" cont="0"/>
        <request index="6"  response="00000011000000000000" foes="10000011000000000000" cont="0"/>
        <request index="7"  response="00000111000000011111" foes="10000111000000011111" cont="0"/>
        <request index="8"  response="00000111000000011111" foes="10000111000000011111" cont="0"/>
        <request index="9"  response="01111111000000011100" foes="01111111000000011100" cont="1"/>
        <request index="10" response="00000000000000000000" foes="01100000000000010000" cont="0"/>
        <request index="11" response="00000000000000000000" foes="01100000000000010000" cont="0"/>
        <request index="12" response="10000000001000000000" foes="11100000001111110000" cont="0"/>
        <request index="13" response="10000000001000000000" foes="11100000001111110000" cont="0"/>
        <request index="14" response="10000000001000001111" foes="11100000001110001111" cont="1"/>
        <request index="15" response="00000000000000001100" foes="00000000001000001100" cont="0"/>
        <request index="16" response="00000000000000001100" foes="00000000001000001100" cont="0"/>
        <request index="17" response="00000111110000011100" foes="00000111111000011100" cont="0"/>
        <request index="18" response="00000111110000011100" foes="00000111111000011100" cont="0"/>
        <request index="19" response="00000111000111111100" foes="00000111000111111100" cont="1"/>
    </junction>
    <junction id="J13" type="dead_end" x="100.00" y="200.00" incLanes="E7_0 E7_1" intLanes="" shape="100.00,200.00 106.40,200.00 100.00,200.00"/>
    <junction id="J14" type="dead_end" x="200.00" y="100.00" incLanes="E8_0 E8_1" intLanes="" shape="200.00,100.00 200.00,93.60 200.00,100.00"/>
    <junction id="J15" type="dead_end" x="100.00" y="0.00" incLanes="E9_0 E9_1" intLanes="" shape="100.00,0.00 93.60,0.00 100.00,0.00"/>

    <junction id=":J12_20_0" type="internal" x="99.11" y="105.44" incLanes=":J12_4_0 -E9_0 -E9_1" intLanes=":J12_7_0 :J12_7_1 :J12_9_0 :J12_10_0 :J12_10_1 :J12_12_0 :J12_12_1 :J12_17_0 :J12_17_1 :J12_19_0"/>
    <junction id=":J12_21_0" type="internal" x="105.44" y="100.89" incLanes=":J12_9_0 E6_0 E6_1" intLanes=":J12_2_0 :J12_2_1 :J12_4_0 :J12_12_0 :J12_12_1 :J12_14_0 :J12_15_0 :J12_15_1 :J12_17_0 :J12_17_1"/>
    <junction id=":J12_22_0" type="internal" x="100.89" y="94.56" incLanes=":J12_14_0 -E7_0 -E7_1" intLanes=":J12_0_0 :J12_0_1 :J12_2_0 :J12_2_1 :J12_7_0 :J12_7_1 :J12_9_0 :J12_17_0 :J12_17_1 :J12_19_0"/>
    <junction id=":J12_23_0" type="internal" x="94.56" y="99.11" incLanes=":J12_19_0 -E8_0 -E8_1" intLanes=":J12_2_0 :J12_2_1 :J12_4_0 :J12_5_0 :J12_5_1 :J12_7_0 :J12_7_1 :J12_12_0 :J12_12_1 :J12_14_0"/>

    <connection from="-E7" to="-E6" fromLane="0" toLane="0" via=":J12_0_0" tl="J12" linkIndex="0" dir="r" state="O"/>
    <connection from="-E7" to="-E6" fromLane="0" toLane="1" via=":J12_0_1" tl="J12" linkIndex="1" dir="r" state="O"/>
    <connection from="-E7" to="E9" fromLane="1" toLane="0" via=":J12_2_0" tl="J12" linkIndex="2" dir="s" state="O"/>
    <connection from="-E7" to="E9" fromLane="1" toLane="1" via=":J12_2_1" tl="J12" linkIndex="3" dir="s" state="O"/>
    <connection from="-E7" to="E8" fromLane="1" toLane="1" via=":J12_4_0" tl="J12" linkIndex="4" dir="l" state="o"/>
    <connection from="-E8" to="E7" fromLane="0" toLane="0" via=":J12_5_0" tl="J12" linkIndex="5" dir="r" state="o"/>
    <connection from="-E8" to="E7" fromLane="0" toLane="1" via=":J12_5_1" tl="J12" linkIndex="6" dir="r" state="o"/>
    <connection from="-E8" to="-E6" fromLane="1" toLane="0" via=":J12_7_0" tl="J12" linkIndex="7" dir="s" state="o"/>
    <connection from="-E8" to="-E6" fromLane="1" toLane="1" via=":J12_7_1" tl="J12" linkIndex="8" dir="s" state="o"/>
    <connection from="-E8" to="E9" fromLane="1" toLane="1" via=":J12_9_0" tl="J12" linkIndex="9" dir="l" state="o"/>
    <connection from="-E9" to="E8" fromLane="0" toLane="0" via=":J12_10_0" tl="J12" linkIndex="10" dir="r" state="O"/>
    <connection from="-E9" to="E8" fromLane="0" toLane="1" via=":J12_10_1" tl="J12" linkIndex="11" dir="r" state="O"/>
    <connection from="-E9" to="E7" fromLane="1" toLane="0" via=":J12_12_0" tl="J12" linkIndex="12" dir="s" state="O"/>
    <connection from="-E9" to="E7" fromLane="1" toLane="1" via=":J12_12_1" tl="J12" linkIndex="13" dir="s" state="O"/>
    <connection from="-E9" to="-E6" fromLane="1" toLane="1" via=":J12_14_0" tl="J12" linkIndex="14" dir="l" state="o"/>
    <connection from="E6" to="E9" fromLane="0" toLane="0" via=":J12_15_0" tl="J12" linkIndex="15" dir="r" state="o"/>
    <connection from="E6" to="E9" fromLane="0" toLane="1" via=":J12_15_1" tl="J12" linkIndex="16" dir="r" state="o"/>
    <connection from="E6" to="E8" fromLane="1" toLane="0" via=":J12_17_0" tl="J12" linkIndex="17" dir="s" state="o"/>
    <connection from="E6" to="E8" fromLane="1" toLane="1" via=":J12_17_1" tl="J12" linkIndex="18" dir="s" state="o"/>
    <connection from="E6" to="E7" fromLane="1" toLane="1" via=":J12_19_0" tl="J12" linkIndex="19" dir="l" state="o"/>

    <connection from=":J12_0" to="-E6" fromLane="0" toLane="0" dir="r" state="M"/>
    <connection from=":J12_0" to="-E6" fromLane="1" toLane="1" dir="r" state="M"/>
    <connection from=":J12_2" to="E9" fromLane="0" toLane="0" dir="s" state="M"/>
    <connection from=":J12_2" to="E9" fromLane="1" toLane="1" dir="s" state="M"/>
    <connection from=":J12_4" to="E8" fromLane="0" toLane="1" via=":J12_20_0" dir="l" state="m"/>
    <connection from=":J12_20" to="E8" fromLane="0" toLane="1" dir="l" state="M"/>
    <connection from=":J12_5" to="E7" fromLane="0" toLane="0" dir="r" state="M"/>
    <connection from=":J12_5" to="E7" fromLane="1" toLane="1" dir="r" state="M"/>
    <connection from=":J12_7" to="-E6" fromLane="0" toLane="0" dir="s" state="M"/>
    <connection from=":J12_7" to="-E6" fromLane="1" toLane="1" dir="s" state="M"/>
    <connection from=":J12_9" to="E9" fromLane="0" toLane="1" via=":J12_21_0" dir="l" state="m"/>
    <connection from=":J12_21" to="E9" fromLane="0" toLane="1" dir="l" state="M"/>
    <connection from=":J12_10" to="E8" fromLane="0" toLane="0" dir="r" state="M"/>
    <connection from=":J12_10" to="E8" fromLane="1" toLane="1" dir="r" state="M"/>
    <connection from=":J12_12" to="E7" fromLane="0" toLane="0" dir="s" state="M"/>
    <connection from=":J12_12" to="E7" fromLane="1" toLane="1" dir="s" state="M"/>
    <connection from=":J12_14" to="-E6" fromLane="0" toLane="1" via=":J12_22_0" dir="l" state="m"/>
    <connection from=":J12_22" to="-E6" fromLane="0" toLane="1" dir="l" state="M"/>
    <connection from=":J12_15" to="E9" fromLane="0" toLane="0" dir="r" state="M"/>
    <connection from=":J12_15" to="E9" fromLane="1" toLane="1" dir="r" state="M"/>
    <connection from=":J12_17" to="E8" fromLane="0" toLane="0" dir="s" state="M"/>
    <connection from=":J12_17" to="E8" fromLane="1" toLane="1" dir="s" state="M"/>
    <connection from=":J12_19" to="E7" fromLane="0" toLane="1" via=":J12_23_0" dir="l" state="m"/>
    <connection from=":J12_23" to="E7" fromLane="0" toLane="1" dir="l" state="M"/>

</net>
